  Version,24.1;

  Timestep,4;

  LifeCycleCost:Parameters,
    Life Cycle Cost Parameters,  !- Name
    EndOfYear,               !- Discounting Convention
    ConstantDollar,          !- Inflation Approach
    0.03,                    !- Real Discount Rate
    ,                        !- Nominal Discount Rate
    ,                        !- Inflation
    ,                        !- Base Date Month
    2011,                    !- Base Date Year
    ,                        !- Service Date Month
    2011,                    !- Service Date Year
    25,                      !- Length of Study Period in Years
    ,                        !- Tax rate
    None;                    !- Depreciation Method

  LifeCycleCost:UsePriceEscalation,
    U.S. Avg  Commercial-Electricity,  !- LCC Price Escalation Name
    Electricity,             !- Resource
    2011,                    !- Escalation Start Year
    January,                 !- Escalation Start Month
    0.9838,                  !- Year 1 Escalation
    0.9730,                  !- Year 2 Escalation
    0.9632,                  !- Year 3 Escalation
    0.9611,                  !- Year 4 Escalation
    0.9571,                  !- Year 5 Escalation
    0.9553,                  !- Year 6 Escalation
    0.9539,                  !- Year 7 Escalation
    0.9521,                  !- Year 8 Escalation
    0.9546,                  !- Year 9 Escalation
    0.9550,                  !- <none>
    0.9553,                  !- <none>
    0.9564,                  !- <none>
    0.9575,                  !- <none>
    0.9596,                  !- <none>
    0.9618,                  !- <none>
    0.9614,                  !- <none>
    0.9618,                  !- <none>
    0.9618,                  !- <none>
    0.9593,                  !- <none>
    0.9589,                  !- <none>
    0.9607,                  !- <none>
    0.9625,                  !- <none>
    0.9650,                  !- <none>
    0.9708,                  !- <none>
    0.9751,                  !- <none>
    0.9762,                  !- <none>
    0.9766,                  !- <none>
    0.9766,                  !- <none>
    0.9769,                  !- <none>
    0.9773;                  !- <none>

  LifeCycleCost:UsePriceEscalation,
    U.S. Avg  Commercial-Distillate Oil,  !- LCC Price Escalation Name
    FuelOilNo1,              !- Resource
    2011,                    !- Escalation Start Year
    January,                 !- Escalation Start Month
    0.9714,                  !- Year 1 Escalation
    0.9730,                  !- Year 2 Escalation
    0.9942,                  !- Year 3 Escalation
    1.0164,                  !- Year 4 Escalation
    1.0541,                  !- Year 5 Escalation
    1.0928,                  !- Year 6 Escalation
    1.1267,                  !- Year 7 Escalation
    1.1580,                  !- Year 8 Escalation
    1.1792,                  !- Year 9 Escalation
    1.1967,                  !- <none>
    1.2200,                  !- <none>
    1.2333,                  !- <none>
    1.2566,                  !- <none>
    1.2709,                  !- <none>
    1.2826,                  !- <none>
    1.2985,                  !- <none>
    1.3102,                  !- <none>
    1.3250,                  !- <none>
    1.3261,                  !- <none>
    1.3282,                  !- <none>
    1.3324,                  !- <none>
    1.3356,                  !- <none>
    1.3431,                  !- <none>
    1.3510,                  !- <none>
    1.3568,                  !- <none>
    1.3606,                  !- <none>
    1.3637,                  !- <none>
    1.3674,                  !- <none>
    1.3706,                  !- <none>
    1.3743;                  !- <none>

  LifeCycleCost:UsePriceEscalation,
    U.S. Avg  Commercial-Residual Oil,  !- LCC Price Escalation Name
    FuelOilNo2,              !- Resource
    2011,                    !- Escalation Start Year
    January,                 !- Escalation Start Month
    0.8469,                  !- Year 1 Escalation
    0.8257,                  !- Year 2 Escalation
    0.8681,                  !- Year 3 Escalation
    0.8988,                  !- Year 4 Escalation
    0.9289,                  !- Year 5 Escalation
    0.9604,                  !- Year 6 Escalation
    0.9897,                  !- Year 7 Escalation
    1.0075,                  !- Year 8 Escalation
    1.0314,                  !- Year 9 Escalation
    1.0554,                  !- <none>
    1.0861,                  !- <none>
    1.1278,                  !- <none>
    1.1497,                  !- <none>
    1.1620,                  !- <none>
    1.1743,                  !- <none>
    1.1852,                  !- <none>
    1.1948,                  !- <none>
    1.2037,                  !- <none>
    1.2071,                  !- <none>
    1.2119,                  !- <none>
    1.2139,                  !- <none>
    1.2194,                  !- <none>
    1.2276,                  !- <none>
    1.2365,                  !- <none>
    1.2420,                  !- <none>
    1.2461,                  !- <none>
    1.2509,                  !- <none>
    1.2550,                  !- <none>
    1.2591,                  !- <none>
    1.2638;                  !- <none>

  LifeCycleCost:UsePriceEscalation,
    U.S. Avg  Commercial-Natural gas,  !- LCC Price Escalation Name
    NaturalGas,              !- Resource
    2011,                    !- Escalation Start Year
    January,                 !- Escalation Start Month
    0.9823,                  !- Year 1 Escalation
    0.9557,                  !- Year 2 Escalation
    0.9279,                  !- Year 3 Escalation
    0.9257,                  !- Year 4 Escalation
    0.9346,                  !- Year 5 Escalation
    0.9412,                  !- Year 6 Escalation
    0.9512,                  !- Year 7 Escalation
    0.9645,                  !- Year 8 Escalation
    0.9856,                  !- Year 9 Escalation
    1.0067,                  !- <none>
    1.0222,                  !- <none>
    1.0410,                  !- <none>
    1.0610,                  !- <none>
    1.0787,                  !- <none>
    1.0942,                  !- <none>
    1.1098,                  !- <none>
    1.1220,                  !- <none>
    1.1308,                  !- <none>
    1.1386,                  !- <none>
    1.1486,                  !- <none>
    1.1619,                  !- <none>
    1.1763,                  !- <none>
    1.1918,                  !- <none>
    1.2118,                  !- <none>
    1.2284,                  !- <none>
    1.2439,                  !- <none>
    1.2605,                  !- <none>
    1.2772,                  !- <none>
    1.2938,                  !- <none>
    1.3115;                  !- <none>

  LifeCycleCost:UsePriceEscalation,
    U.S. Avg  Commercial-Coal,  !- LCC Price Escalation Name
    Coal,                    !- Resource
    2011,                    !- Escalation Start Year
    January,                 !- Escalation Start Month
    0.9970,                  !- Year 1 Escalation
    1.0089,                  !- Year 2 Escalation
    1.0089,                  !- Year 3 Escalation
    0.9941,                  !- Year 4 Escalation
    0.9941,                  !- Year 5 Escalation
    1.0000,                  !- Year 6 Escalation
    1.0030,                  !- Year 7 Escalation
    1.0059,                  !- Year 8 Escalation
    1.0089,                  !- Year 9 Escalation
    1.0119,                  !- <none>
    1.0148,                  !- <none>
    1.0178,                  !- <none>
    1.0208,                  !- <none>
    1.0267,                  !- <none>
    1.0297,                  !- <none>
    1.0356,                  !- <none>
    1.0415,                  !- <none>
    1.0534,                  !- <none>
    1.0564,                  !- <none>
    1.0593,                  !- <none>
    1.0653,                  !- <none>
    1.0712,                  !- <none>
    1.0742,                  !- <none>
    1.0801,                  !- <none>
    1.0831,                  !- <none>
    1.0831,                  !- <none>
    1.0861,                  !- <none>
    1.0890,                  !- <none>
    1.0920,                  !- <none>
    1.0950;                  !- <none>

  Building,
    ReMoni Building,         !- Name
    358,                     !- North Axis {deg}
    ,                        !- Terrain
    ,                        !- Loads Convergence Tolerance Value {W}
    ,                        !- Temperature Convergence Tolerance Value {deltaC}
    ,                        !- Solar Distribution
    ,                        !- Maximum Number of Warmup Days
    ;                        !- Minimum Number of Warmup Days

  Zone,
    Thermal Zone: Alpha_Meeting_room,  !- Name
    ,                        !- Direction of Relative North {deg}
    5.13958879990413,        !- X Origin {m}
    17.921283838003,         !- Y Origin {m}
    -2.70716782324598e-016,  !- Z Origin {m}
    ,                        !- Type
    ,                        !- Multiplier
    ,                        !- Ceiling Height {m}
    ,                        !- Volume {m3}
    ,                        !- Floor Area {m2}
    ,                        !- Zone Inside Convection Algorithm
    ;                        !- Zone Outside Convection Algorithm

  BuildingSurface:Detailed,
    Surface 38,              !- Name
    Floor,                   !- Surface Type
    FloorSeparation_adiabatic,  !- Construction Name
    Thermal Zone: Alpha_Meeting_room,  !- Zone Name
    ,                        !- Space Name
    Ground,                  !- Outside Boundary Condition
    ,                        !- Outside Boundary Condition Object
    NoSun,                   !- Sun Exposure
    NoWind,                  !- Wind Exposure
    ,                        !- View Factor to Ground
    ,                        !- Number of Vertices
    0,0,0,  !- X,Y,Z ==> Vertex 1 {m}
    0,-4.91,0,  !- X,Y,Z ==> Vertex 2 {m}
    -5,-4.91,0,  !- X,Y,Z ==> Vertex 3 {m}
    -6.3,-2.455,0,  !- X,Y,Z ==> Vertex 4 {m}
    -5,0,0;  !- X,Y,Z ==> Vertex 5 {m}

  BuildingSurface:Detailed,
    Surface 39,              !- Name
    Wall,                    !- Surface Type
    Exterior_Walls,          !- Construction Name
    Thermal Zone: Alpha_Meeting_room,  !- Zone Name
    ,                        !- Space Name
    Outdoors,                !- Outside Boundary Condition
    ,                        !- Outside Boundary Condition Object
    SunExposed,              !- Sun Exposure
    WindExposed,             !- Wind Exposure
    ,                        !- View Factor to Ground
    ,                        !- Number of Vertices
    0,-4.91,2.6,  !- X,Y,Z ==> Vertex 1 {m}
    0,-4.91,0,  !- X,Y,Z ==> Vertex 2 {m}
    0,0,0,  !- X,Y,Z ==> Vertex 3 {m}
    0,0,2.6;  !- X,Y,Z ==> Vertex 4 {m}

  BuildingSurface:Detailed,
    Surface 40,              !- Name
    Wall,                    !- Surface Type
    Exterior_Walls,          !- Construction Name
    Thermal Zone: Alpha_Meeting_room,  !- Zone Name
    ,                        !- Space Name
    Outdoors,                !- Outside Boundary Condition
    ,                        !- Outside Boundary Condition Object
    SunExposed,              !- Sun Exposure
    WindExposed,             !- Wind Exposure
    ,                        !- View Factor to Ground
    ,                        !- Number of Vertices
    -5,-4.91,2.6,  !- X,Y,Z ==> Vertex 1 {m}
    -5,-4.91,0,  !- X,Y,Z ==> Vertex 2 {m}
    0,-4.91,0,  !- X,Y,Z ==> Vertex 3 {m}
    0,-4.91,2.6;  !- X,Y,Z ==> Vertex 4 {m}

  BuildingSurface:Detailed,
    Surface 41,              !- Name
    Wall,                    !- Surface Type
    Exterior_Walls,          !- Construction Name
    Thermal Zone: Alpha_Meeting_room,  !- Zone Name
    ,                        !- Space Name
    Outdoors,                !- Outside Boundary Condition
    ,                        !- Outside Boundary Condition Object
    SunExposed,              !- Sun Exposure
    WindExposed,             !- Wind Exposure
    ,                        !- View Factor to Ground
    ,                        !- Number of Vertices
    -6.3,-2.455,2.6,  !- X,Y,Z ==> Vertex 1 {m}
    -6.3,-2.455,0,  !- X,Y,Z ==> Vertex 2 {m}
    -5,-4.91,0,  !- X,Y,Z ==> Vertex 3 {m}
    -5,-4.91,2.6;  !- X,Y,Z ==> Vertex 4 {m}

  FenestrationSurface:Detailed,
    Sub Surface 8,           !- Name
    Window,                  !- Surface Type
    ReMoni Windows - Standard Dbl Clr Low Iron 3mm/6mm Air,  !- Construction Name
    Surface 41,              !- Building Surface Name
    ,                        !- Outside Boundary Condition Object
    ,                        !- View Factor to Ground
    ,                        !- Frame and Divider Name
    ,                        !- Multiplier
    ,                        !- Number of Vertices
    -6.29564648655611,-2.46322144269597,2.59069703276856,  !- X,Y,Z ==> Vertex 1 {m}
    -6.29564648655611,-2.46322144269597,0.00930296723144109,  !- X,Y,Z ==> Vertex 2 {m}
    -5.00435351344389,-4.90177855730403,0.00930296723144109,  !- X,Y,Z ==> Vertex 3 {m}
    -5.00435351344389,-4.90177855730403,2.59069703276856;  !- X,Y,Z ==> Vertex 4 {m}

  BuildingSurface:Detailed,
    Surface 42,              !- Name
    Wall,                    !- Surface Type
    Exterior_Walls,          !- Construction Name
    Thermal Zone: Alpha_Meeting_room,  !- Zone Name
    ,                        !- Space Name
    Outdoors,                !- Outside Boundary Condition
    ,                        !- Outside Boundary Condition Object
    SunExposed,              !- Sun Exposure
    WindExposed,             !- Wind Exposure
    ,                        !- View Factor to Ground
    ,                        !- Number of Vertices
    -5,0,2.6,  !- X,Y,Z ==> Vertex 1 {m}
    -5,0,0,  !- X,Y,Z ==> Vertex 2 {m}
    -6.3,-2.455,0,  !- X,Y,Z ==> Vertex 3 {m}
    -6.3,-2.455,2.6;  !- X,Y,Z ==> Vertex 4 {m}

  FenestrationSurface:Detailed,
    Sub Surface 9,           !- Name
    Window,                  !- Surface Type
    ReMoni Windows - Standard Dbl Clr Low Iron 3mm/6mm Air,  !- Construction Name
    Surface 42,              !- Building Surface Name
    ,                        !- Outside Boundary Condition Object
    ,                        !- View Factor to Ground
    ,                        !- Frame and Divider Name
    ,                        !- Multiplier
    ,                        !- Number of Vertices
    -5.00247138211879,-0.00466711007817451,2.59471893513969,  !- X,Y,Z ==> Vertex 1 {m}
    -5.00247138211879,-0.00466711007817451,0.00528106486031222,  !- X,Y,Z ==> Vertex 2 {m}
    -6.29752861788121,-2.45033288992183,0.00528106486031222,  !- X,Y,Z ==> Vertex 3 {m}
    -6.29752861788121,-2.45033288992183,2.59471893513969;  !- X,Y,Z ==> Vertex 4 {m}

  BuildingSurface:Detailed,
    Surface 43,              !- Name
    Wall,                    !- Surface Type
    Exterior_Walls,          !- Construction Name
    Thermal Zone: Alpha_Meeting_room,  !- Zone Name
    ,                        !- Space Name
    Outdoors,                !- Outside Boundary Condition
    ,                        !- Outside Boundary Condition Object
    SunExposed,              !- Sun Exposure
    WindExposed,             !- Wind Exposure
    ,                        !- View Factor to Ground
    ,                        !- Number of Vertices
    0,0,2.6,  !- X,Y,Z ==> Vertex 1 {m}
    0,0,0,  !- X,Y,Z ==> Vertex 2 {m}
    -5,0,0,  !- X,Y,Z ==> Vertex 3 {m}
    -5,0,2.6;  !- X,Y,Z ==> Vertex 4 {m}

  BuildingSurface:Detailed,
    Surface 44,              !- Name
    Roof,                    !- Surface Type
    Roof,                    !- Construction Name
    Thermal Zone: Alpha_Meeting_room,  !- Zone Name
    ,                        !- Space Name
    Outdoors,                !- Outside Boundary Condition
    ,                        !- Outside Boundary Condition Object
    SunExposed,              !- Sun Exposure
    WindExposed,             !- Wind Exposure
    ,                        !- View Factor to Ground
    ,                        !- Number of Vertices
    0,-4.91,2.6,  !- X,Y,Z ==> Vertex 1 {m}
    0,0,2.6,  !- X,Y,Z ==> Vertex 2 {m}
    -5,0,2.6,  !- X,Y,Z ==> Vertex 3 {m}
    -6.3,-2.455,2.6,  !- X,Y,Z ==> Vertex 4 {m}
    -5,-4.91,2.6;  !- X,Y,Z ==> Vertex 5 {m}

  ZoneControl:Thermostat,
    Thermal Zone: Alpha_Meeting_room Thermostat,  !- Name
    Thermal Zone: Alpha_Meeting_room,  !- Zone or ZoneList Name
    Thermal Zone: Alpha_Meeting_room Thermostat Schedule,  !- Control Type Schedule Name
    ThermostatSetpoint:DualSetpoint,  !- Control 1 Object Type
    Thermostat Setpoint Dual Setpoint 1;  !- Control 1 Name

  Schedule:Compact,
    Thermal Zone: Alpha_Meeting_room Thermostat Schedule,  !- Name
    Thermal Zone: Alpha_Meeting_room Thermostat Schedule Type Limits,  !- Schedule Type Limits Name
    Through: 12/31,          !- Field 1
    For: AllDays,            !- Field 2
    Until: 24:00,4;          !- Field 3

  ScheduleTypeLimits,
    Thermal Zone: Alpha_Meeting_room Thermostat Schedule Type Limits,  !- Name
    0,                       !- Lower Limit Value
    4,                       !- Upper Limit Value
    DISCRETE;                !- Numeric Type

  ThermostatSetpoint:DualSetpoint,
    Thermostat Setpoint Dual Setpoint 1,  !- Name
    heating Setpoint,        !- Heating Setpoint Temperature Schedule Name
    Cooling Setpoint;        !- Cooling Setpoint Temperature Schedule Name

  ScheduleTypeLimits,
    Temperature 11,          !- Name
    ,                        !- Lower Limit Value
    ,                        !- Upper Limit Value
    Continuous,              !- Numeric Type
    temperature;             !- Unit Type

  Schedule:Day:Interval,
    Schedule Day 4,          !- Name
    Temperature 11,          !- Schedule Type Limits Name
    No,                      !- Interpolate to Timestep
    24:00,                   !- Time 1
    18;                      !- Value Until Time 1

  Schedule:Day:Interval,
    Schedule Day 2,          !- Name
    Temperature 11,          !- Schedule Type Limits Name
    No,                      !- Interpolate to Timestep
    06:00,                   !- Time 1
    18,                      !- Value Until Time 1
    17:00,                   !- Time 2
    21,                      !- Value Until Time 2
    24:00,                   !- Time 3
    18;                      !- Value Until Time 3

  Schedule:Week:Daily,
    heating Setpoint Week Rule - Jan1-Dec31,  !- Name
    Schedule Day 4,          !- Sunday Schedule:Day Name
    Schedule Day 2,          !- Monday Schedule:Day Name
    Schedule Day 2,          !- Tuesday Schedule:Day Name
    Schedule Day 2,          !- Wednesday Schedule:Day Name
    Schedule Day 2,          !- Thursday Schedule:Day Name
    Schedule Day 2,          !- Friday Schedule:Day Name
    Schedule Day 4,          !- Saturday Schedule:Day Name
    Schedule Day 2,          !- Holiday Schedule:Day Name
    Schedule Day 2,          !- SummerDesignDay Schedule:Day Name
    Schedule Day 2,          !- WinterDesignDay Schedule:Day Name
    Schedule Day 2,          !- CustomDay1 Schedule:Day Name
    Schedule Day 2;          !- CustomDay2 Schedule:Day Name

  Schedule:Year,
    heating Setpoint,        !- Name
    Temperature 11,          !- Schedule Type Limits Name
    heating Setpoint Week Rule - Jan1-Dec31,  !- Schedule:Week Name 1
    1,                       !- Start Month 1
    1,                       !- Start Day 1
    12,                      !- End Month 1
    31;                      !- End Day 1

  Schedule:Day:Interval,
    Schedule Day 5,          !- Name
    Temperature 11,          !- Schedule Type Limits Name
    No,                      !- Interpolate to Timestep
    24:00,                   !- Time 1
    27;                      !- Value Until Time 1

  Schedule:Day:Interval,
    Schedule Day 3,          !- Name
    Temperature 11,          !- Schedule Type Limits Name
    No,                      !- Interpolate to Timestep
    06:00,                   !- Time 1
    27,                      !- Value Until Time 1
    17:00,                   !- Time 2
    22,                      !- Value Until Time 2
    24:00,                   !- Time 3
    27;                      !- Value Until Time 3

  Schedule:Week:Daily,
    Cooling Setpoint Week Rule - Jan1-Dec31,  !- Name
    Schedule Day 5,          !- Sunday Schedule:Day Name
    Schedule Day 3,          !- Monday Schedule:Day Name
    Schedule Day 3,          !- Tuesday Schedule:Day Name
    Schedule Day 3,          !- Wednesday Schedule:Day Name
    Schedule Day 3,          !- Thursday Schedule:Day Name
    Schedule Day 3,          !- Friday Schedule:Day Name
    Schedule Day 5,          !- Saturday Schedule:Day Name
    Schedule Day 3,          !- Holiday Schedule:Day Name
    Schedule Day 3,          !- SummerDesignDay Schedule:Day Name
    Schedule Day 3,          !- WinterDesignDay Schedule:Day Name
    Schedule Day 3,          !- CustomDay1 Schedule:Day Name
    Schedule Day 3;          !- CustomDay2 Schedule:Day Name

  Schedule:Year,
    Cooling Setpoint,        !- Name
    Temperature 11,          !- Schedule Type Limits Name
    Cooling Setpoint Week Rule - Jan1-Dec31,  !- Schedule:Week Name 1
    1,                       !- Start Month 1
    1,                       !- Start Day 1
    12,                      !- End Month 1
    31;                      !- End Day 1

  ZoneHVAC:EquipmentConnections,
    Thermal Zone: Alpha_Meeting_room,  !- Zone Name
    Thermal Zone: Alpha_Meeting_room Equipment List,  !- Zone Conditioning Equipment List Name
    Thermal Zone: Alpha_Meeting_room Inlet Node List,  !- Zone Air Inlet Node or NodeList Name
    ,                        !- Zone Air Exhaust Node or NodeList Name
    Node 13,                 !- Zone Air Node Name
    Thermal Zone: Alpha_Meeting_room Return Node List;  !- Zone Return Air Node or NodeList Name

  NodeList,
    Thermal Zone: Alpha_Meeting_room Inlet Node List,  !- Name
    Node 115;                !- Node 1 Name

  NodeList,
    Thermal Zone: Alpha_Meeting_room Return Node List,  !- Name
    Node 122;                !- Node 1 Name

  ZoneHVAC:Baseboard:Convective:Water,
    HW Baseboard,            !- Name
    Always On Discrete hvac_library,  !- Availability Schedule Name
    Node 49,                 !- Inlet Node Name
    Node 52,                 !- Outlet Node Name
    HeatingDesignCapacity,   !- Heating Design Capacity Method
    Autosize,                !- Heating Design Capacity {W}
    0,                       !- Heating Design Capacity Per Floor Area {W/m2}
    0.8,                     !- Fraction of Autosized Heating Design Capacity
    Autosize,                !- U-Factor Times Area Value {W/K}
    Autosize,                !- Maximum Water Flow Rate {m3/s}
    0.001;                   !- Convergence Tolerance

  Schedule:Constant,Always On Discrete hvac_library,OnOff hvac_library,1;

  AirTerminal:SingleDuct:ConstantVolume:NoReheat,
    Diffuser,                !- Name
    Always On Discrete hvac_library,  !- Availability Schedule Name
    Node 121,                !- Air Inlet Node Name
    Node 115,                !- Air Outlet Node Name
    AutoSize;                !- Maximum Air Flow Rate {m3/s}

  ZoneHVAC:AirDistributionUnit,
    ADU Diffuser,            !- Name
    Node 115,                !- Air Distribution Unit Outlet Node Name
    AirTerminal:SingleDuct:ConstantVolume:NoReheat,  !- Air Terminal Object Type
    Diffuser;                !- Air Terminal Name

  ZoneHVAC:EquipmentList,
    Thermal Zone: Alpha_Meeting_room Equipment List,  !- Name
    SequentialLoad,          !- Load Distribution Scheme
    ZoneHVAC:Baseboard:Convective:Water,  !- Zone Equipment 1 Object Type
    HW Baseboard,            !- Zone Equipment 1 Name
    1,                       !- Zone Equipment 1 Cooling Sequence
    1,                       !- Zone Equipment 1 Heating or No-Load Sequence
    ,                        !- Zone Equipment 1 Sequential Cooling Fraction Schedule Name
    ,                        !- Zone Equipment 1 Sequential Heating Fraction Schedule Name
    ZoneHVAC:AirDistributionUnit,  !- Zone Equipment 2 Object Type
    ADU Diffuser,            !- Zone Equipment 2 Name
    2,                       !- Zone Equipment 2 Cooling Sequence
    2,                       !- Zone Equipment 2 Heating or No-Load Sequence
    ,                        !- Zone Equipment 2 Sequential Cooling Fraction Schedule Name
    ;                        !- Zone Equipment 2 Sequential Heating Fraction Schedule Name

  Sizing:Zone,
    Thermal Zone: Alpha_Meeting_room,  !- Zone or ZoneList Name
    SupplyAirTemperature,    !- Zone Cooling Design Supply Air Temperature Input Method
    14,                      !- Zone Cooling Design Supply Air Temperature {C}
    11.11,                   !- Zone Cooling Design Supply Air Temperature Difference {deltaC}
    SupplyAirTemperature,    !- Zone Heating Design Supply Air Temperature Input Method
    40,                      !- Zone Heating Design Supply Air Temperature {C}
    11.11,                   !- Zone Heating Design Supply Air Temperature Difference {deltaC}
    0.0085,                  !- Zone Cooling Design Supply Air Humidity Ratio {kgWater/kgDryAir}
    0.008,                   !- Zone Heating Design Supply Air Humidity Ratio {kgWater/kgDryAir}
    New Ventilation,         !- Design Specification Outdoor Air Object Name
    ,                        !- Zone Heating Sizing Factor
    ,                        !- Zone Cooling Sizing Factor
    DesignDay,               !- Cooling Design Air Flow Method
    0,                       !- Cooling Design Air Flow Rate {m3/s}
    0.000762,                !- Cooling Minimum Air Flow per Zone Floor Area {m3/s-m2}
    0,                       !- Cooling Minimum Air Flow {m3/s}
    0,                       !- Cooling Minimum Air Flow Fraction
    DesignDay,               !- Heating Design Air Flow Method
    0,                       !- Heating Design Air Flow Rate {m3/s}
    0.002032,                !- Heating Maximum Air Flow per Zone Floor Area {m3/s-m2}
    0.1415762,               !- Heating Maximum Air Flow {m3/s}
    0.3,                     !- Heating Maximum Air Flow Fraction
    Thermal Zone: Alpha_Meeting_room Design Spec Zone Air Dist,  !- Design Specification Zone Air Distribution Object Name
    No,                      !- Account for Dedicated Outdoor Air System
    NeutralSupplyAir,        !- Dedicated Outdoor Air System Control Strategy
    autosize,                !- Dedicated Outdoor Air Low Setpoint Temperature for Design {C}
    autosize,                !- Dedicated Outdoor Air High Setpoint Temperature for Design {C}
    Sensible Load Only No Latent Load,  !- Zone Load Sizing Method
    HumidityRatioDifference, !- Zone Latent Cooling Design Supply Air Humidity Ratio Input Method
    ,                        !- Zone Dehumidification Design Supply Air Humidity Ratio {kgWater/kgDryAir}
    0.005,                   !- Zone Cooling Design Supply Air Humidity Ratio Difference {kgWater/kgDryAir}
    HumidityRatioDifference, !- Zone Latent Heating Design Supply Air Humidity Ratio Input Method
    ,                        !- Zone Humidification Design Supply Air Humidity Ratio {kgWater/kgDryAir}
    0.005;                   !- Zone Humidification Design Supply Air Humidity Ratio Difference {kgWater/kgDryAir}

  DesignSpecification:ZoneAirDistribution,
    Thermal Zone: Alpha_Meeting_room Design Spec Zone Air Dist,  !- Name
    1,                       !- Zone Air Distribution Effectiveness in Cooling Mode {dimensionless}
    1;                       !- Zone Air Distribution Effectiveness in Heating Mode {dimensionless}

  Controller:MechanicalVentilation,
    Controller Mechanical Ventilation 1,  !- Name
    Always On Discrete hvac_library,  !- Availability Schedule Name
    No,                      !- Demand Controlled Ventilation
    ZoneSum,                 !- System Outdoor Air Method
    ,                        !- Zone Maximum Outdoor Air Fraction {dimensionless}
    Thermal Zone: Alpha_Meeting_room,  !- Zone or ZoneList 1 Name
    New Ventilation,         !- Design Specification Outdoor Air Object Name 1
    Thermal Zone: Alpha_Meeting_room Design Spec Zone Air Dist,  !- Design Specification Zone Air Distribution Object Name 1
    Thermal Zone: Corridor_toilet,  !- Zone or ZoneList 2 Name
    New Ventilation,         !- Design Specification Outdoor Air Object Name 2
    Thermal Zone: Corridor_toilet Design Spec Zone Air Dist,  !- Design Specification Zone Air Distribution Object Name 2
    Thermal Zone: Entreance_Show_Room,  !- Zone or ZoneList 3 Name
    New Ventilation,         !- Design Specification Outdoor Air Object Name 3
    Thermal Zone: Entreance_Show_Room Design Spec Zone Air Dist,  !- Design Specification Zone Air Distribution Object Name 3
    Thermal Zone: Extra_Office_1,  !- Zone or ZoneList 4 Name
    New Ventilation,         !- Design Specification Outdoor Air Object Name 4
    Thermal Zone: Extra_Office_1 Design Spec Zone Air Dist,  !- Design Specification Zone Air Distribution Object Name 4